# generated using pymatgen
data_CuP6H2Pb9O26
_symmetry_space_group_name_H-M   'P 1'
_cell_length_a   10.04786108
_cell_length_b   10.06743609
_cell_length_c   7.41195606
_cell_angle_alpha   90.39229669
_cell_angle_beta   90.27931133
_cell_angle_gamma   120.23652374
_symmetry_Int_Tables_number   1
_chemical_formula_structural   CuP6H2Pb9O26
_chemical_formula_sum   'Cu1 P6 H2 Pb9 O26'
_cell_volume   647.71747158
_cell_formula_units_Z   1
loop_
 _symmetry_equiv_pos_site_id
 _symmetry_equiv_pos_as_xyz
  1  'x, y, z'
loop_
 _atom_site_type_symbol
 _atom_site_label
 _atom_site_symmetry_multiplicity
 _atom_site_fract_x
 _atom_site_fract_y
 _atom_site_fract_z
 _atom_site_occupancy
  P  P0  1  0.37803877  0.97121331  0.25417938  1
  P  P1  1  0.02640526  0.40351036  0.24792913  1
  P  P2  1  0.59611524  0.62431731  0.25467911  1
  P  P3  1  0.63100767  0.02872493  0.75288712  1
  P  P4  1  0.97502871  0.59029307  0.75343336  1
  P  P5  1  0.40340482  0.37669100  0.75482639  1
  Pb  Pb6  1  0.66784551  0.33518732  0.49942474  1
  Pb  Pb7  1  0.33106850  0.66068188  0.99748374  1
  Pb  Pb8  1  0.32918834  0.65800087  0.50481265  1
  Pb  Pb9  1  0.66390656  0.33588669  0.00678358  1
  Pb  Pb10  1  0.01305829  0.76745854  0.28052043  1
  Pb  Pb11  1  0.22851800  0.24215228  0.28945188  1
  Pb  Pb12  1  0.76138108  0.99447800  0.28865567  1
  Pb  Pb13  1  0.76963658  0.75976431  0.78445230  1
  Pb  Pb14  1  0.23857459  0.00941065  0.78481182  1
  O  O15  1  0.00193793  -0.03377371  -0.08019655  1
  O  O16  1  0.00067871  0.00588284  0.42952920  1
  O  O17  1  0.48599370  0.14800773  0.25374705  1
  O  O18  1  0.84967849  0.33747755  0.25669518  1
  O  O19  1  0.66400404  0.51618601  0.25546072  1
  O  O20  1  0.52445613  0.85289688  0.75479739  1
  O  O21  1  0.15238937  0.66616480  0.75483716  1
  O  O22  1  0.34438654  0.49146996  0.75313479  1
  O  O23  1  0.47166522  0.88550804  0.25282876  1
  O  O24  1  0.11556183  0.58461151  0.24847206  1
  O  O25  1  0.41537964  0.53139991  0.25340017  1
  O  O26  1  0.54072347  0.11766412  0.75942009  1
  O  O27  1  0.89593707  0.40980084  0.74245579  1
  O  O28  1  0.58457552  0.46410254  0.75349014  1
  O  O29  1  0.26912579  0.91608435  0.08503450  1
  O  O30  1  0.07080510  0.34532132  0.07495772  1
  O  O31  1  0.64921168  0.72829182  0.08457465  1
  O  O32  1  0.73688562  0.08386679  0.58388486  1
  O  O33  1  0.91804459  0.63889335  0.58376760  1
  O  O34  1  0.34568595  0.26894731  0.58496610  1
  O  O35  1  0.74779942  0.08553957  0.91785976  1
  O  O36  1  0.91231885  0.62893826  0.92498674  1
  O  O37  1  0.35089125  0.27058504  0.92299027  1
  O  O38  1  0.27134409  0.91683428  0.42263963  1
  O  O39  1  0.08790987  0.35660904  0.41496895  1
  O  O40  1  0.64903821  0.73237959  0.42356386  1
  H  H41  1  0.00032798  0.00999053  0.03681637  1
  H  H42  1  -0.00020004  0.03406024  0.55601926  1
  Cu  Cu43  1  0.93026599  0.24848894  0.80256643  1
