# generated using pymatgen
data_P3Pb5O13
_symmetry_space_group_name_H-M   'P 1'
_cell_length_a   9.89700785
_cell_length_b   9.89700785
_cell_length_c   7.32663400
_cell_angle_alpha   90.00000000
_cell_angle_beta   90.00000000
_cell_angle_gamma   120.00000000
_symmetry_Int_Tables_number   1
_chemical_formula_structural   P3Pb5O13
_chemical_formula_sum   'P6 Pb10 O26'
_cell_volume   621.50261181
_cell_formula_units_Z   2
loop_
 _symmetry_equiv_pos_site_id
 _symmetry_equiv_pos_as_xyz
  1  'x, y, z'
loop_
 _atom_type_symbol
 _atom_type_oxidation_number
  P5+  5.0
  Pb2+  2.0
  O2-  -2.0
  O-  -1.0
loop_
 _atom_site_type_symbol
 _atom_site_label
 _atom_site_symmetry_multiplicity
 _atom_site_fract_x
 _atom_site_fract_y
 _atom_site_fract_z
 _atom_site_occupancy
  P5+  P0  1  0.38492200  0.98072300  0.25000000  1
  P5+  P1  1  0.01927700  0.40419900  0.25000000  1
  P5+  P2  1  0.59580100  0.61507800  0.25000000  1
  P5+  P3  1  0.61507800  0.01927700  0.75000000  1
  P5+  P4  1  0.98072300  0.59580100  0.75000000  1
  P5+  P5  1  0.40419900  0.38492200  0.75000000  1
  Pb2+  Pb6  1  0.66666667  0.33333333  0.49889100  1
  Pb2+  Pb7  1  0.33333333  0.66666667  0.99889100  1
  Pb2+  Pb8  1  0.33333333  0.66666667  0.50110900  1
  Pb2+  Pb9  1  0.66666667  0.33333333  0.00110900  1
  Pb2+  Pb10  1  0.01501800  0.78334300  0.25000000  1
  Pb2+  Pb11  1  0.21665700  0.23167500  0.25000000  1
  Pb2+  Pb12  1  0.76832500  0.98498200  0.25000000  1
  Pb2+  Pb13  1  0.98498200  0.21665700  0.75000000  1
  Pb2+  Pb14  1  0.78334300  0.76832500  0.75000000  1
  Pb2+  Pb15  1  0.23167500  0.01501800  0.75000000  1
  O-  O16  1  0.00000000  0.00000000  0.00000000  1
  O-  O17  1  0.00000000  0.00000000  0.50000000  1
  O2-  O18  1  0.48732800  0.16097400  0.25000000  1
  O2-  O19  1  0.83902600  0.32635400  0.25000000  1
  O2-  O20  1  0.67364600  0.51267200  0.25000000  1
  O2-  O21  1  0.51267200  0.83902600  0.75000000  1
  O2-  O22  1  0.16097400  0.67364600  0.75000000  1
  O2-  O23  1  0.32635400  0.48732800  0.75000000  1
  O2-  O24  1  0.48764300  0.90166000  0.25000000  1
  O2-  O25  1  0.09834000  0.58598300  0.25000000  1
  O2-  O26  1  0.41401700  0.51235700  0.25000000  1
  O2-  O27  1  0.51235700  0.09834000  0.75000000  1
  O2-  O28  1  0.90166000  0.41401700  0.75000000  1
  O2-  O29  1  0.58598300  0.48764300  0.75000000  1
  O2-  O30  1  0.27558700  0.92243000  0.07982600  1
  O2-  O31  1  0.07757000  0.35315700  0.07982600  1
  O2-  O32  1  0.64684300  0.72441300  0.07982600  1
  O2-  O33  1  0.72441300  0.07757000  0.57982600  1
  O2-  O34  1  0.92243000  0.64684300  0.57982600  1
  O2-  O35  1  0.35315700  0.27558700  0.57982600  1
  O2-  O36  1  0.72441300  0.07757000  0.92017400  1
  O2-  O37  1  0.92243000  0.64684300  0.92017400  1
  O2-  O38  1  0.35315700  0.27558700  0.92017400  1
  O2-  O39  1  0.27558700  0.92243000  0.42017400  1
  O2-  O40  1  0.07757000  0.35315700  0.42017400  1
  O2-  O41  1  0.64684300  0.72441300  0.42017400  1
